/*---------------------------------------------------------------------------*\
  =========                 |
  \\      /  F ield         | OpenFOAM: The Open Source CFD Toolbox
   \\    /   O peration     | Website:  https://openfoam.org
    \\  /    A nd           | Version:  7
     \\/     M anipulation  |
\*---------------------------------------------------------------------------*/
Build  : 7
Exec   : checkMesh
Date   : Feb 27 2026
Time   : 01:06:08
Host   : "login3.frontera.tacc.utexas.edu"
PID    : 38999
I/O    : uncollated
Case   : /work2/10961/marco1022/frontera/COE347/openfoam_assignment2/COE347/openfoam/a2_circular_cylinder/meshA
nProcs : 1
sigFpe : Enabling floating point exception trapping (FOAM_SIGFPE).
fileModificationChecking : Monitoring run-time modified files using timeStampMaster (fileModificationSkew 10)
allowSystemOperations : Allowing user-supplied system call operations

// * * * * * * * * * * * * * * * * * * * * * * * * * * * * * * * * * * * * * //
Create time

Create polyMesh for time = 0

--> FOAM Warning : 
    From function Foam::polyMesh::polyMesh(const Foam::IOobject &)
    in file meshes/polyMesh/polyMesh.C at line 332
    no points in mesh
--> FOAM Warning : 
    From function Foam::polyMesh::polyMesh(const Foam::IOobject &)
    in file meshes/polyMesh/polyMesh.C at line 337
    no cells in mesh
Time = 0

Mesh stats
    points:           0
    internal points:  0
    faces:            0
    internal faces:   0
    cells:            0
    faces per cell:   0
    boundary patches: 5
    point zones:      0
    face zones:       0
    cell zones:       0

Overall number of cells of each type:
    hexahedra:     0
    prisms:        0
    wedges:        0
    pyramids:      0
    tet wedges:    0
    tetrahedra:    0
    polyhedra:     0

Checking topology...
    Boundary definition OK.
    Cell to face addressing OK.
    Point usage OK.
    Upper triangular ordering OK.
    Face vertices OK.
    Number of regions: 0 (OK).

Checking patch topology for multiply connected surfaces...
    Patch               Faces    Points   Surface topology                  
    inlet               0        0        ok (empty)                        
    outlet              0        0        ok (empty)                        
    cylinder            0        0        ok (empty)                        
    top                 0        0        ok (empty)                        
    bottom              0        0        ok (empty)                        

Checking geometry...
    Overall domain bounding box (0 0 0) (0 0 0)
    Mesh has 3 geometric (non-empty/wedge) directions (1 1 1)
    Mesh has 3 solution (non-empty) directions (1 1 1)
    Boundary openness (0 0 0) OK.
    Max cell openness = -1.79769e+307 OK.
    Max aspect ratio = -1.79769e+307 OK.
    Minimum face area = 4.5036e+15. Maximum face area = -4.5036e+15.  Face area magnitudes OK.
    Min volume = 4.5036e+15. Max volume = -4.5036e+15.  Total volume = 0.  Cell volumes OK.
    Non-orthogonality check OK.
    Face pyramids OK.
    Max skewness = -1.79769e+307 OK.
    Coupled point location match (average 0) OK.

Mesh OK.

End

