/*---------------------------------------------------------------------------*\
  =========                 |
  \\      /  F ield         | OpenFOAM: The Open Source CFD Toolbox
   \\    /   O peration     | Website:  https://openfoam.org
    \\  /    A nd           | Version:  7
     \\/     M anipulation  |
\*---------------------------------------------------------------------------*/
Build  : 7
Exec   : checkMesh
Date   : Mar 08 2026
Time   : 18:31:14
Host   : "login2.frontera.tacc.utexas.edu"
PID    : 250344
I/O    : uncollated
Case   : /home1/10961/marco1022/COE347/COE347/openfoam/a2_circular_cylinder/meshB
nProcs : 1
sigFpe : Enabling floating point exception trapping (FOAM_SIGFPE).
fileModificationChecking : Monitoring run-time modified files using timeStampMaster (fileModificationSkew 10)
allowSystemOperations : Allowing user-supplied system call operations

// * * * * * * * * * * * * * * * * * * * * * * * * * * * * * * * * * * * * * //
Create time

Create polyMesh for time = 0

Time = 0

Mesh stats
    points:           40918
    internal points:  0
    faces:            80609
    internal faces:   39691
    cells:            20050
    faces per cell:   6
    boundary patches: 6
    point zones:      0
    face zones:       0
    cell zones:       0

Overall number of cells of each type:
    hexahedra:     20050
    prisms:        0
    wedges:        0
    pyramids:      0
    tet wedges:    0
    tetrahedra:    0
    polyhedra:     0

Checking topology...
    Boundary definition OK.
    Cell to face addressing OK.
    Point usage OK.
    Upper triangular ordering OK.
    Face vertices OK.
    Number of regions: 1 (OK).

Checking patch topology for multiply connected surfaces...
    Patch               Faces    Points   Surface topology                  
    inlet               154      310      ok (non-closed singly connected)  
    outlet              154      310      ok (non-closed singly connected)  
    cylinder            248      496      ok (non-closed singly connected)  
    top                 131      264      ok (non-closed singly connected)  
    bottom              131      264      ok (non-closed singly connected)  
    frontAndBack        40100    40918    ok (non-closed singly connected)  

Checking geometry...
    Overall domain bounding box (-4 -4 -0.05) (6 4 0.05)
    Mesh has 2 geometric (non-empty/wedge) directions (1 1 0)
    Mesh has 2 solution (non-empty) directions (1 1 0)
    All edges aligned with or perpendicular to non-empty directions.
    Boundary openness (3.11216e-19 1.49597e-19 -6.86598e-17) OK.
    Max cell openness = 2.62817e-16 OK.
    Max aspect ratio = 11.5203 OK.
    Minimum face area = 0.00029855. Maximum face area = 0.03465.  Face area magnitudes OK.
    Min volume = 2.9855e-05. Max volume = 0.003465.  Total volume = 7.92147.  Cell volumes OK.
    Mesh non-orthogonality Max: 43.9532 average: 12.6942
    Non-orthogonality check OK.
    Face pyramids OK.
    Max skewness = 0.891771 OK.
    Coupled point location match (average 0) OK.

Mesh OK.

End

